LAMMPS (24 Apr 2013)
units metal
atom_style atomic
boundary p p p
dimension 3
read_data data.pos
  triclinic box = (0 0 0) to (9.838 8.51996 24.595) with tilt (4.919 0 0)
  32 atoms
mass 1 12.01
pair_style tersoff
pair_coeff * * BNC.tersoff C

velocity  all  create  300 458127641 mom yes  rot yes dist gaussian
neighbor 2.0 bin
neigh_modify delay 3
fix getEqu  all  nvt temp 300 300 .5e-1
thermo 10000
timestep .5e-3
run 100000
Step Temp E_pair E_mol TotEng Press
0          300   -254.92439            0   -253.72227    14987.482
Averages over the last 6 of 11 rows, steps 50000 to 100000:
Temp E_pair E_mol TotEng Press
294.741 -253.618 0 -252.437 15154.7
Loop time of 11.7137 on 1 procs for 100000 steps with 32 atoms

Pair  time (%) = 11.4025 (97.3434)
Neigh time (%) = 0 (0)
Comm  time (%) = 0.100091 (0.854471)
Outpt time (%) = 0.000221252 (0.00188883)
Other time (%) = 0.21088 (1.80028)

unfix getEqu

reset_timestep    0
# -------------- Flux calculation in nve ---------------
fix nve all nve
#compute     myKE all ke/atom
#compute     myPE all pe/atom
#compute     myStress all stress/atom virial
#compute      jflux all heat/flux myKE myPE myStress
#fix ss all ave/correlate 5 20000 100000 vx vy vz type auto file j0jt.txt
dump lala all custom 1 v1.txt id type vx vy vz
run             100000
Step Temp E_pair E_mol TotEng Press
0    277.79866   -253.28968            0   -252.17652    15103.219
Averages over the last 6 of 11 rows, steps 50000 to 100000:
Temp E_pair E_mol TotEng Press
349.41 -253.578 0 -252.178 14986.9
Loop time of 16.4829 on 1 procs for 100000 steps with 32 atoms

Pair  time (%) = 11.9885 (72.7329)
Neigh time (%) = 0 (0)
Comm  time (%) = 0.110913 (0.672901)
Outpt time (%) = 4.23916 (25.7186)
Other time (%) = 0.144322 (0.875591)
